Circuit: * C:\Users\racine\source\RaysceneNS\ChargingSystemIndicator\analog circuit\two_level.asc

WARNING: Specified period is not longer than the sum of Trise, Tfall, and Ton for v1.  Increasing period to 0.5
Limiting fall time of source v1 to 9.99201e-017
Per .tran options, skipping operating point for transient analysis.

Date: Fri Sep 03 18:59:09 2021
Total elapsed time: 0.069 seconds.

tnom = 27
temp = 27
method = modified trap
totiter = 2476
traniter = 2476
tranpoints = 1159
accept = 1130
rejected = 29
matrix size = 33
fillins = 12
solver = Normal
Matrix Compiler1: 2.69 KB object code size  0.5/0.3/[0.2]
Matrix Compiler2: 2.91 KB object code size  0.2/0.4/[0.2]

