Circuit: * C:\Users\racine\source\RaysceneNS\simple-charging-system-monitor\simulation\two_level.asc

WARNING: Specified period is not longer than the sum of Trise, Tfall, and Ton for v1.  Increasing period to 0.5
Limiting fall time of source v1 to 9.99201e-017
Per .tran options, skipping operating point for transient analysis.
Changing Tseed to 1e-008
Changing Tseed to 1e-010

Date: Sun Dec 12 21:19:11 2021
Total elapsed time: 0.065 seconds.

tnom = 27
temp = 27
method = modified trap
totiter = 2648
traniter = 2648
tranpoints = 1212
accept = 1165
rejected = 45
matrix size = 32
fillins = 12
solver = Normal
Matrix Compiler1: 2.64 KB object code size  0.5/0.3/[0.2]
Matrix Compiler2: 2.84 KB object code size  0.2/0.4/[0.2]

